Circuit: * E:\WDATA\Facultad\Materias\Seminario de audio profesional\CLASES VIRTUALES\TPS\REPO\TP1\SIMS\amplifier_LOOP.asc

Warning: Multiple definitions of model "2n3906" Type: BJT
Warning: Multiple definitions of model "2n3904" Type: BJT
Number of points per decade reduced from 10000 to 5248.
Direct Newton iteration for .op point succeeded.

zerogainvalue: v(out)*exp(i*pi)=(-0.7032954276,-0.7108976954) at 8140753.153
phasemargin: (180 + ph(zerogainvalue))=(45.30800154,0)


Date: Thu Jun 04 08:32:56 2020
Total elapsed time: 4.145 seconds.

tnom = 27
temp = 27
method = trap
totiter = 7
traniter = 0
tranpoints = 0
accept = 0
rejected = 0
matrix size = 56
fillins = 50
solver = Alternate
Matrix Compiler1:     384 opcodes
Matrix Compiler2: 6.91 KB object code size
