Circuit: * E:\WDATA\Facultad\Materias\Seminario de audio profesional\CLASES VIRTUALES\TPS\REPO\TP1\SIMS\amplifier.asc

Warning: Multiple definitions of model "2n3906" Type: BJT
Warning: Multiple definitions of model "2n3904" Type: BJT
Direct Newton iteration for .op point succeeded.
N-Period=4
Fourier components of V(out)
DC component:-0.0148846

Harmonic	Frequency	 Fourier 	Normalized	 Phase  	Normalized
 Number 	  [Hz]   	Component	 Component	[degree]	Phase [deg]
    1   	1.000e+04	4.502e+01	1.000e+00	   -0.02°	    0.00°
    2   	2.000e+04	2.000e-05	4.443e-07	  -74.52°	  -74.51°
    3   	3.000e+04	4.087e-05	9.079e-07	   80.39°	   80.40°
    4   	4.000e+04	9.740e-06	2.163e-07	  167.21°	  167.22°
    5   	5.000e+04	1.898e-05	4.216e-07	 -104.82°	 -104.81°
    6   	6.000e+04	2.980e-07	6.619e-09	  -45.88°	  -45.87°
    7   	7.000e+04	8.958e-06	1.990e-07	  103.53°	  103.54°
    8   	8.000e+04	3.934e-06	8.739e-08	  178.37°	  178.39°
    9   	9.000e+04	4.670e-06	1.037e-07	 -116.27°	 -116.25°
   10   	1.000e+05	7.494e-07	1.665e-08	 -177.38°	 -177.36°
Total Harmonic Distortion: 0.000114%(0.000000%)



vrms: RMS(v(out))=31.8342 FROM 0.0005 TO 0.02
pout: AVG(v(out)*i(rl))=126.677 FROM 0.0005 TO 0.02
vout_max: MAX(v(out))=45.0056 FROM 0 TO 0.02
vin_max: MAX(v(in))=2.2375 FROM 0 TO 0.02
gain: (vout_max/vin_max)=20.1142
gain_db: 20*log10(vout_max/vin_max)=26.0701


Date: Wed Jun 10 04:13:18 2020
Total elapsed time: 36.855 seconds.

tnom = 27
temp = 27
method = modified trap
totiter = 410070
traniter = 410056
tranpoints = 205026
accept = 205026
rejected = 0
matrix size = 55
fillins = 52
solver = Alternate
Matrix Compiler1: 8.90 KB object code size  7.7/6.0/[4.0]
Matrix Compiler2: 6.90 KB object code size  3.9/5.1/[3.1]

